10
Coordinates from ORCA-job .\Acetona
  C   -2.08892133532062     -1.62946176936319     -0.03593322285700
  C   -0.80107839883364     -0.84147221459114     -0.09428181863698
  H   -2.94417906302787     -0.94751107797804     -0.11913896937306
  H   -2.15493609231235     -2.20032026403620      0.90404691487835
  H   -2.12299744718535     -2.36391823661248     -0.85722613108589
  C   0.47705383089640     -1.62813209671233      0.08063328773509
  H   0.50098610018090     -2.09443911786161      1.07882125592870
  H   1.34072413690195     -0.96113863514635     -0.03258404276896
  H   0.53693882475827     -2.44691665663491     -0.65399611916098
  O   -0.79372055605770      0.35260006893625     -0.27034115465927
